FoamFile
{
    version     2.0;
    format      ascii;
    class       polyBoundaryMesh;
    location    "constant/polyMesh";
    object      boundary;
}

1
(
    walls
    {
        type            wall;
        nFaces          49198;
        startFace       177495;
    }
)
