FoamFile
{
    version     2.0;
    format      ascii;
    class       polyBoundaryMesh;
    location    "polyMesh";
    object      boundary;
}

1
(
 boundary
{
     type            wall;
     nFaces          2756;
     startFace       23718;
}
)
